** sym_path: /home/tim/gits/chipalooza_projects_2/dependencies/sky130_aa_ip__programmable_pll/xschem/PFD_INV.sym
** sch_path: /home/tim/gits/chipalooza_projects_2/dependencies/sky130_aa_ip__programmable_pll/xschem/PFD_INV.sch
.subckt PFD_INV VDD VSS IN OUT
*.PININFO VDD:B VSS:B IN:I OUT:O
XM1 OUT IN VDD VDD sky130_fd_pr__pfet_01v8 L=0.15 W=0.84 nf=1 m=1
XM3 OUT IN VSS VSS sky130_fd_pr__nfet_01v8 L=0.15 W=0.42 nf=1 m=1
.ends
